2Case_20kW/Output/output_current_1.csv
# Output\output_current_1.csv run at 2000-01-01 09:00:00 WET on 907 links
link_name,currA_mag,currA_angle,currB_mag,currB_angle,currC_mag,currC_angle
Source_Impedance,0.515783,-0.230079,0.516908,3.784915,0.436780,1.775085
TR1,0.515783,-0.230079,0.516908,3.784915,0.436780,1.775085
LINE1,11.524781,-0.841184,15.649325,3.347770,11.579056,1.252475
LINE2,11.524781,-0.841184,15.649325,3.347770,11.579056,1.252475
LINE3,11.524781,-0.841184,15.649325,3.347770,11.579056,1.252475
LINE4,11.524781,-0.841184,15.649325,3.347770,11.579056,1.252475
LINE5,11.524781,-0.841184,15.649325,3.347770,11.579056,1.252475
LINE6,11.524781,-0.841184,15.649325,3.347770,11.579056,1.252475
LINE7,11.524781,-0.841184,15.649325,3.347770,11.579056,1.252475
LINE8,11.524781,-0.841184,15.649325,3.347770,11.579056,1.252475
LINE9,11.524781,-0.841184,15.649325,3.347770,11.579056,1.252475
LINE10,11.524781,-0.841184,15.649325,3.347770,11.579056,1.252475
LINE11,11.524781,-0.841184,15.649325,3.347770,11.579056,1.252475
LINE12,11.524781,-0.841184,15.649325,3.347770,11.579056,1.252475
LINE13,11.524781,-0.841184,15.649325,3.347770,11.579056,1.252475
LINE14,11.524781,-0.841184,15.649325,3.347770,11.579056,1.252475
LINE15,0.000000,0.058209,0.000000,3.553288,0.000000,1.545539
LINE16,11.524781,-0.841184,15.649325,3.347770,11.579056,1.252475
LINE17,0.000000,-0.346682,0.000000,3.760162,0.000000,-0.024932
LINE18,11.524781,-0.841184,15.649325,3.347770,11.579056,1.252475
LINE19,0.000000,3.361639,0.000000,3.580308,0.000000,-1.538905
LINE20,11.524781,-0.841184,15.649325,3.347770,11.579056,1.252475
LINE21,0.000000,0.000000,0.000000,-0.024932,0.000000,-1.509678
LINE22,11.524781,-0.841184,15.649325,3.347770,11.579056,1.252475
LINE23,0.000000,-0.488580,0.000000,3.361639,0.000000,-1.341580
LINE24,11.524781,-0.841184,15.649325,3.347770,11.579056,1.252475
LINE25,0.000000,-0.668433,0.000000,3.657080,0.000000,-0.024932
LINE26,1.599709,-0.841478,0.000000,3.951684,0.000000,1.735134
LINE27,9.925073,-0.841136,15.649325,3.347770,11.579056,1.252475
LINE28,0.000000,4.687457,0.000000,3.978831,0.000000,1.375652
LINE29,0.150359,-0.841488,0.000000,-0.016203,0.000000,1.519971
LINE30,1.449350,-0.841478,0.000000,3.944163,0.000000,1.726196
LINE31,9.925073,-0.841136,15.649325,3.347770,11.579056,1.252475
LINE32,0.000000,-0.108073,0.000000,3.924277,0.000000,-1.287514
LINE33,0.150359,-0.841488,0.000000,-0.854026,0.000000,-1.165042
LINE34,1.449350,-0.841478,0.000000,4.532084,0.000000,1.793227
LINE35,0.000000,0.477960,0.472362,3.347239,0.000000,-1.568000
LINE36,9.925073,-0.841136,15.176963,3.347787,11.579056,1.252475
LINE37,0.000000,-0.269911,0.000000,4.012716,0.000000,1.227046
LINE38,1.449350,-0.841478,0.000000,3.859400,0.000000,1.708339
LINE39,0.000000,0.345525,0.234091,3.347239,0.000000,4.709714
LINE40,0.000000,0.937154,0.238271,3.347239,0.000000,-1.465546
LINE41,9.925073,-0.841136,15.176963,3.347787,11.579056,1.252475
LINE42,0.000000,3.573613,0.000000,-0.272084,0.000000,-1.274493
LINE43,0.000000,0.760466,0.000000,3.760162,0.000000,-1.511940
LINE44,1.449350,-0.841478,0.000000,3.709270,0.000000,1.631442
LINE45,0.000000,0.819887,0.234091,3.347239,0.000000,-1.559910
LINE46,0.000000,2.744819,0.238271,3.347239,0.000000,4.640786
LINE47,9.925073,-0.841136,15.176963,3.347787,11.579056,1.252475
LINE48,0.000000,3.586275,0.000000,-0.125043,0.000000,-1.412171
LINE49,0.000000,0.438716,0.000000,3.760162,0.000000,-1.450278
LINE50,1.449350,-0.841478,0.000000,3.785676,0.000000,0.322650
LINE51,0.000000,1.848487,0.234091,3.347239,0.000000,-1.564746
LINE52,9.925073,-0.841136,15.176963,3.347787,11.579056,1.252475
LINE53,0.000000,4.680991,0.000000,-1.493040,0.000000,4.067521
LINE54,0.000000,3.576336,0.000000,0.166557,0.000000,-1.471809
LINE55,0.000000,0.253368,0.000000,3.361639,0.000000,-1.499026
LINE56,1.449350,-0.841478,0.000000,1.282130,0.000000,4.649291
LINE57,0.000000,1.468225,0.234091,3.347239,0.000000,-1.519258
LINE58,9.925073,-0.841136,15.176963,3.347787,11.579056,1.252475
LINE59,0.000000,4.632101,0.000000,-0.698283,0.000000,3.575909
LINE60,0.000000,3.706903,0.000000,-0.023368,0.000000,-0.220485
LINE61,0.000000,0.266525,0.000000,3.438411,0.000000,-1.484374
LINE62,1.449350,-0.841478,0.000000,1.916816,0.000000,4.667367
LINE63,0.000000,1.524047,0.234091,3.347239,0.000000,4.677099
LINE64,7.760594,-0.841097,15.176963,3.347787,11.579056,1.252475
LINE65,2.164479,-0.841279,0.000000,2.336223,0.000000,1.493742
LINE66,0.000000,-0.985140,0.000000,2.818708,0.000000,4.496633
LINE67,0.000000,3.410947,0.000000,-0.098216,0.000000,-0.039200
LINE68,0.000000,0.030567,0.000000,3.281809,0.000000,-1.505641
LINE69,1.449350,-0.841478,0.000000,2.623839,0.000000,-1.309357
LINE70,0.000000,2.471058,0.234091,3.347239,0.000000,1.186235
LINE71,7.760594,-0.841097,15.176963,3.347787,11.579056,1.252475
LINE72,0.204742,-0.841286,0.000000,3.156569,0.000000,1.651177
LINE73,1.959737,-0.841278,0.000000,3.397046,0.000000,4.648818
LINE74,0.000000,-0.929413,0.000000,3.681929,0.000000,4.308900
LINE75,0.000000,3.397812,0.000000,0.412979,0.000000,-1.074466
LINE76,0.000000,0.087495,0.000000,3.549069,0.000000,-1.465128
LINE77,0.000000,-1.570431,0.234091,3.347239,0.000000,-1.494442
LINE78,7.760594,-0.841097,15.176963,3.347787,11.579056,1.252475
LINE79,0.000000,-1.039364,0.000000,3.751100,0.000000,4.447938
LINE80,0.000000,3.272607,0.000000,0.684886,0.000000,-1.217783
LINE81,0.000000,0.105280,0.000000,3.511452,0.000000,-1.453831
LINE82,0.000000,2.741229,0.234091,3.347239,0.000000,1.633175
LINE83,7.760594,-0.841097,15.176963,3.347787,11.579056,1.252475
LINE84,0.000000,-1.020964,0.000000,3.727337,0.000000,4.638610
LINE85,0.000000,3.258979,0.000000,0.714361,0.000000,-1.213727
LINE86,0.000000,0.074737,0.000000,3.543288,0.000000,-1.409751
LINE87,7.760594,-0.841097,15.176963,3.347787,11.579056,1.252475
LINE88,0.000000,1.439363,0.000000,4.546412,0.000000,1.146296
LINE89,0.000000,3.271612,0.000000,0.506707,0.000000,-1.192775
LINE90,0.000000,-0.024932,0.000000,3.314056,0.000000,-1.431213
LINE91,7.760594,-0.841097,15.176963,3.347787,11.579056,1.252475
LINE92,0.000000,3.497709,0.000000,0.085899,0.000000,-1.525990
LINE93,0.000000,-0.024932,0.000000,3.580308,0.000000,-0.024932
LINE94,7.760594,-0.841097,15.176963,3.347787,11.579056,1.252475
LINE95,0.000000,3.757444,0.000000,0.243563,0.000000,4.624080
LINE96,0.000000,1.545864,0.000000,0.220047,0.000000,-1.566440
LINE97,7.760594,-0.841097,15.176963,3.347787,11.579056,1.252475
LINE98,0.000000,3.035515,0.000000,-0.177243,0.000000,3.916286
LINE99,0.000000,0.000000,0.000000,-0.024932,0.000000,-0.024932
LINE100,7.760594,-0.841097,15.176963,3.347787,11.579056,1.252475
LINE101,0.000000,2.384032,0.000000,-0.210284,0.000000,1.745042
LINE102,0.000000,4.687457,0.000000,0.000000,0.000000,-0.024932
LINE103,0.217277,-0.841246,1.284828,3.347567,0.443215,1.252520
LINE104,7.543317,-0.841092,13.892135,3.347807,11.135841,1.252473
LINE105,0.000000,2.397559,0.000000,-0.124183,0.000000,1.790928
LINE106,0.217277,-0.841246,1.284828,3.347567,0.443215,1.252520
LINE107,7.543317,-0.841092,13.892135,3.347807,11.135841,1.252473
LINE108,0.000000,2.507516,0.000000,-0.009131,0.000000,1.777299
LINE109,0.217277,-0.841246,1.284828,3.347567,0.443215,1.252520
LINE110,7.543317,-0.841092,13.892135,3.347807,11.135841,1.252473
LINE111,0.000000,2.524483,0.000000,-0.032467,0.000000,1.781866
LINE112,0.217277,-0.841246,1.284828,3.347567,0.443215,1.252520
LINE113,7.543317,-0.841092,13.892135,3.347807,11.135841,1.252473
LINE114,0.000000,2.525628,0.000000,-0.032872,0.000000,1.783613
LINE115,0.217277,-0.841246,1.284828,3.347567,0.443215,1.252520
LINE116,0.213108,-0.841221,4.551936,3.347737,2.752350,1.252491
LINE117,7.330209,-0.841089,9.340199,3.347841,8.383491,1.252467
LINE118,0.000000,2.506724,0.000000,-0.011708,0.000000,1.765077
LINE119,0.217277,-0.841246,1.284828,3.347567,0.443215,1.252520
LINE120,0.000000,2.653013,0.000000,-0.236025,0.000000,-1.562342
LINE121,0.213108,-0.841221,4.551936,3.347737,2.752350,1.252491
LINE122,7.330209,-0.841089,9.340199,3.347841,8.383491,1.252467
LINE123,0.000000,2.517066,0.000000,-0.025239,0.000000,1.751907
LINE124,0.217277,-0.841246,1.284828,3.347567,0.443215,1.252520
LINE125,0.000000,2.736154,0.000000,-0.070355,0.000000,-1.565220
LINE126,0.213108,-0.841221,4.551936,3.347737,2.752350,1.252491
LINE127,7.330209,-0.841089,9.340199,3.347841,8.383491,1.252467
LINE128,0.000000,2.541061,0.000000,0.007790,0.000000,1.710238
LINE129,0.217277,-0.841246,1.284828,3.347567,0.443215,1.252520
LINE130,0.000000,2.794910,0.000000,-0.024932,0.000000,4.685504
LINE131,0.213108,-0.841221,0.000000,4.130909,0.000000,4.631077
LINE132,0.000000,-0.896996,4.551936,3.347737,2.752350,1.252491
LINE133,7.330209,-0.841089,9.340199,3.347841,8.383491,1.252467
LINE134,0.000000,2.477605,0.000000,-0.004615,0.000000,1.726859
LINE135,0.217277,-0.841246,1.284828,3.347567,0.443215,1.252520
LINE136,0.000000,1.545864,0.000000,-0.024932,0.000000,1.523407
LINE137,0.213108,-0.841221,0.000000,4.181011,0.000000,4.586418
LINE138,0.000000,-0.892539,4.551936,3.347737,2.752350,1.252491
LINE139,7.330209,-0.841089,9.340199,3.347841,8.383491,1.252467
LINE140,0.000000,2.468971,0.000000,-0.019372,0.000000,1.737573
LINE141,0.217277,-0.841246,1.284828,3.347567,0.443215,1.252520
LINE142,0.000000,1.545864,0.000000,-0.024932,0.000000,3.116661
LINE143,0.213108,-0.841221,0.000000,4.143456,0.000000,4.549190
LINE144,0.000000,-0.873284,4.551936,3.347737,2.752350,1.252491
LINE145,7.330209,-0.841089,9.340199,3.347841,8.383491,1.252467
LINE146,0.000000,2.562875,0.000000,-0.026386,0.000000,1.776457
LINE147,0.217277,-0.841246,1.284828,3.347567,0.443215,1.252520
LINE148,0.000000,1.545864,0.000000,0.296819,0.000000,1.500973
LINE149,0.213108,-0.841221,0.000000,4.292009,0.000000,4.592450
LINE150,0.000000,-1.114376,0.000000,2.243361,2.752350,1.252491
LINE151,0.000000,-0.051337,4.551936,3.347737,0.000000,-1.426542
LINE152,7.330209,-0.841089,9.340199,3.347841,8.383491,1.252467
LINE153,0.000000,2.181068,0.000000,-0.101720,0.000000,2.074466
LINE154,0.217277,-0.841246,1.284828,3.347567,0.443215,1.252520
LINE155,0.000000,1.082217,0.000000,-0.810330,0.000000,1.540249
LINE156,0.213108,-0.841221,0.000000,4.266108,0.000000,4.619143
LINE157,0.000000,-1.110118,0.000000,2.234879,2.752350,1.252491
LINE158,0.000000,-0.054442,4.551936,3.347737,0.000000,-1.444557
LINE159,7.330209,-0.841089,9.340199,3.347841,8.383491,1.252467
LINE160,0.000000,3.880441,0.000000,0.139786,0.000000,1.685839
LINE161,0.000000,1.757369,0.878883,3.347571,0.000000,1.734275
LINE162,0.217277,-0.841246,0.405946,3.347559,0.443215,1.252520
LINE163,0.000000,1.224114,0.000000,-0.346682,0.000000,1.547818
LINE164,0.213108,-0.841221,0.000000,4.204627,0.000000,4.614667
LINE165,0.000000,-1.120937,0.000000,2.236511,2.752350,1.252491
LINE166,0.000000,-0.071894,4.551936,3.347737,0.000000,-1.474068
LINE167,7.330209,-0.841089,9.340199,3.347841,8.383491,1.252467
LINE168,0.000000,2.819932,0.000000,-0.498324,0.000000,2.925803
LINE169,0.000000,2.120258,0.878883,3.347571,0.000000,1.667030
LINE170,0.217277,-0.841246,0.405946,3.347559,0.443215,1.252520
LINE171,0.000000,0.438716,0.000000,-0.024932,0.000000,-0.024932
LINE172,0.213108,-0.841221,0.000000,4.220268,0.000000,4.587615
LINE173,0.000000,-1.414081,0.000000,2.332968,0.000000,2.914914
LINE174,0.000000,-0.407092,0.000000,-0.130247,2.752350,1.252491
LINE175,0.000000,0.046058,4.551936,3.347737,0.000000,-1.520273
LINE176,7.330209,-0.841089,9.340199,3.347841,8.383491,1.252467
LINE177,0.000000,3.051173,0.878883,3.347571,0.000000,4.658043
LINE178,0.217277,-0.841246,0.405946,3.347559,0.000000,2.190234
LINE179,0.000000,0.079500,0.000000,3.372950,0.443215,1.252520
LINE180,0.000000,0.140217,0.000000,0.438716,0.000000,4.689410
LINE181,0.213108,-0.841221,0.000000,4.170619,0.000000,4.520140
LINE182,0.000000,-1.391883,0.000000,2.339314,0.000000,2.856726
LINE183,0.000000,-0.408760,0.000000,-0.165877,2.752350,1.252491
LINE184,0.000000,-0.028577,4.551936,3.347737,0.000000,-1.530278
LINE185,7.330209,-0.841089,9.340199,3.347841,8.383491,1.252467
LINE186,0.217277,-0.841246,0.405946,3.347559,0.000000,1.502018
LINE187,0.000000,0.082776,0.000000,3.370768,0.443215,1.252520
LINE188,0.000000,4.687457,0.000000,0.438716,0.000000,-0.024932
LINE189,0.213108,-0.841221,0.000000,4.238381,0.000000,4.636349
LINE190,0.000000,2.129201,0.000000,0.134194,0.000000,1.895698
LINE191,0.000000,-0.914231,0.000000,2.386792,0.000000,2.937592
LINE192,0.000000,-0.354187,0.000000,-0.103107,2.752350,1.252491
LINE193,0.000000,0.025901,4.551936,3.347737,0.000000,-1.516289
LINE194,7.330209,-0.841089,9.340199,3.347841,8.383491,1.252467
LINE195,0.217277,-0.841246,0.405946,3.347559,0.000000,1.503286
LINE196,0.000000,2.628819,0.000000,1.283226,0.221607,1.252520
LINE197,0.000000,0.061994,0.000000,3.368106,0.221607,1.252520
LINE198,0.000000,0.438716,0.000000,0.438716,0.000000,-1.554248
LINE199,0.213108,-0.841221,0.000000,4.190594,0.000000,4.639002
LINE200,0.000000,1.028501,0.000000,1.028501,0.000000,2.396566
LINE201,0.000000,-1.343120,0.000000,2.097628,0.000000,2.715963
LINE202,0.000000,-0.285938,0.000000,-0.031757,2.752350,1.252491
LINE203,0.000000,-0.031942,4.551936,3.347737,0.000000,-1.493359
LINE204,7.330209,-0.841089,9.340199,3.347841,8.383491,1.252467
LINE205,0.217277,-0.841246,0.000000,-1.010547,0.000000,2.708013
LINE206,0.000000,2.824380,0.405946,3.347559,0.000000,2.168055
LINE207,0.000000,4.204015,0.000000,3.554377,0.221607,1.252520
LINE208,0.000000,0.107204,0.000000,3.296742,0.221607,1.252520
LINE209,0.000000,0.438716,0.000000,-0.024932,0.000000,4.711541
LINE210,0.213108,-0.841221,0.000000,4.191316,0.000000,4.596047
LINE211,0.000000,-1.446085,0.000000,2.047011,0.000000,2.768367
LINE212,0.000000,-0.266033,0.000000,0.094282,2.752350,1.252491
LINE213,0.000000,0.107122,4.551936,3.347737,0.000000,-1.517461
LINE214,7.330209,-0.841089,9.340199,3.347841,8.383491,1.252467
LINE215,0.217277,-0.841246,0.000000,2.506477,0.000000,1.950549
LINE216,0.000000,2.929947,0.405946,3.347559,0.000000,1.940903
LINE217,0.000000,-0.499566,0.000000,3.407381,0.221607,1.252520
LINE218,0.000000,0.000000,0.000000,0.000000,0.000000,-0.024932
LINE219,0.213108,-0.841221,0.000000,4.212866,0.000000,4.609052
LINE220,0.000000,-1.272500,0.000000,1.494350,0.000000,2.043635
LINE221,0.000000,-0.288334,0.000000,0.022663,2.752350,1.252491
LINE222,0.000000,0.120163,4.551936,3.347737,0.000000,-1.503920
LINE223,7.330209,-0.841089,9.340199,3.347841,8.383491,1.252467
LINE224,0.217277,-0.841246,0.000000,3.302036,0.000000,1.415467
LINE225,0.000000,1.758039,0.405946,3.347559,0.000000,2.018367
LINE226,0.000000,-0.176714,0.000000,3.422783,0.221607,1.252520
LINE227,0.213108,-0.841221,0.000000,4.083196,0.000000,4.612373
LINE228,0.000000,-1.002054,0.000000,1.350404,0.000000,2.933178
LINE229,0.000000,-0.299315,0.000000,0.014228,2.752350,1.252491
LINE230,0.000000,0.082602,4.551936,3.347737,0.000000,-1.514649
LINE231,7.330209,-0.841089,9.340199,3.347841,8.383491,1.252467
LINE232,0.000000,-0.008296,0.405946,3.347559,0.000000,1.614154
LINE233,0.000000,3.844976,0.000000,3.036423,0.000000,3.424580
LINE234,0.000000,-0.397035,0.000000,3.302968,0.221607,1.252520
LINE235,0.213108,-0.841221,0.000000,4.051048,0.000000,1.540224
LINE236,0.000000,-0.580020,0.000000,2.383877,0.000000,2.302783
LINE237,0.000000,-0.335915,0.000000,-0.057008,2.752350,1.252491
LINE238,0.000000,-0.075747,4.551936,3.347737,0.000000,-1.522945
LINE239,7.330209,-0.841089,9.340199,3.347841,8.383491,1.252467
LINE240,0.000000,-0.498250,0.405946,3.347559,0.000000,1.572905
LINE241,0.000000,-0.092015,0.000000,3.749994,0.221607,1.252520
LINE242,0.213108,-0.841221,0.000000,4.033481,0.000000,1.603155
LINE243,0.000000,-0.397816,0.000000,2.561147,0.000000,1.877260
LINE244,0.000000,-0.342983,0.000000,-0.101221,2.752350,1.252491
LINE245,0.000000,-0.136528,4.551936,3.347737,0.000000,-1.525760
LINE246,7.330209,-0.841089,9.340199,3.347841,8.383491,1.252467
LINE247,0.000000,0.202703,0.200880,3.347559,0.000000,1.488867
LINE248,0.000000,2.134586,0.205065,3.347559,0.000000,4.640229
LINE249,0.000000,0.743068,0.000000,2.984932,0.221607,1.252520
LINE250,0.213108,-0.841221,0.000000,3.790025,0.000000,4.643382
LINE251,0.000000,-0.782321,0.000000,1.892126,0.000000,2.375531
LINE252,0.000000,-0.314970,0.000000,-0.054577,2.752350,1.252491
LINE253,0.000000,-0.175722,4.551936,3.347737,0.000000,-1.525903
LINE254,0.647824,-0.841193,0.000000,0.411953,0.000000,4.117822
LINE255,6.682385,-0.841079,9.340199,3.347841,8.383491,1.252467
LINE256,0.000000,0.438504,0.000000,3.487289,0.221607,1.252520
LINE257,0.213108,-0.841221,0.000000,3.444128,0.000000,4.611559
LINE258,0.000000,0.849577,0.000000,4.118177,0.000000,2.366407
LINE259,0.000000,-0.297440,0.000000,-0.059773,2.752350,1.252491
LINE260,0.000000,-0.150345,4.551936,3.347737,0.000000,-1.509215
LINE261,0.647824,-0.841193,0.000000,0.399430,0.000000,2.644073
LINE262,6.682385,-0.841079,9.340199,3.347841,8.383491,1.252467
LINE263,0.000000,2.628467,0.000000,3.099122,0.221607,1.252520
LINE264,0.213108,-0.841221,0.000000,0.478773,0.000000,2.296257
LINE265,0.000000,-0.447420,0.000000,3.485155,0.000000,2.252368
LINE266,0.000000,-0.286219,0.000000,-0.036877,2.752350,1.252491
LINE267,0.000000,-0.979196,4.363517,3.347738,0.000000,1.624307
LINE268,0.000000,-0.194428,0.188419,3.347706,0.000000,-1.566309
LINE269,0.647824,-0.841193,0.000000,0.357907,0.000000,1.665059
LINE270,0.000000,0.081031,0.000000,3.131055,0.209168,1.252455
LINE271,6.682385,-0.841079,9.340199,3.347841,8.174323,1.252468
LINE272,0.213108,-0.841221,0.000000,0.177339,0.000000,1.629297
LINE273,0.000000,4.469366,0.000000,3.294006,0.000000,1.808619
LINE274,0.000000,-0.234103,0.000000,0.019601,2.752350,1.252491
LINE275,0.000000,2.948587,4.363517,3.347738,0.000000,4.613622
LINE276,0.000000,-0.196573,0.188419,3.347706,0.000000,4.702374
LINE277,0.647824,-0.841193,0.000000,0.395074,0.000000,1.968055
LINE278,0.000000,0.418417,0.000000,3.282471,0.209168,1.252455
LINE279,6.682385,-0.841079,9.340199,3.347841,8.174323,1.252468
LINE280,0.213108,-0.841221,0.000000,3.225102,0.000000,1.582011
LINE281,0.000000,-1.225161,0.000000,3.831846,0.000000,2.623784
LINE282,0.000000,-0.310988,0.000000,-0.133649,2.752350,1.252491
LINE283,0.000000,-0.334084,0.188419,3.347706,0.000000,4.673528
LINE284,0.647824,-0.841193,0.000000,0.372339,0.000000,4.133819
LINE285,0.000000,-0.170809,0.000000,3.244310,0.209168,1.252455
LINE286,1.826822,-0.841043,4.651116,3.347823,1.179957,1.252367
LINE287,4.855564,-0.841092,4.689083,3.347859,6.994366,1.252485
LINE288,0.213108,-0.841221,0.000000,2.420932,0.000000,1.661909
LINE289,0.000000,-0.766717,0.000000,2.539173,0.000000,1.559954
LINE290,0.000000,0.844133,0.000000,3.035207,0.225870,1.252484
LINE291,0.000000,-0.322236,0.000000,-0.140447,2.526480,1.252492
LINE292,0.000000,2.759128,0.188419,3.347706,0.000000,-1.565908
LINE293,0.647824,-0.841193,0.000000,0.386531,0.000000,4.700615
LINE294,0.000000,-0.432270,0.000000,3.233508,0.209168,1.252455
LINE295,1.826822,-0.841043,4.651116,3.347823,1.179957,1.252367
LINE296,4.855564,-0.841092,4.689083,3.347859,6.994366,1.252485
LINE297,0.000000,2.974265,0.000000,2.485112,0.225870,1.252484
LINE298,0.000000,-0.269527,0.000000,-0.191455,2.526480,1.252492
LINE299,0.000000,1.478539,0.188419,3.347706,0.000000,4.663970
LINE300,0.647824,-0.841193,0.000000,0.387621,0.000000,1.741395
LINE301,0.000000,-0.226316,0.000000,3.337941,0.209168,1.252455
LINE302,1.826822,-0.841043,4.651116,3.347823,1.179957,1.252367
LINE303,4.855564,-0.841092,4.689083,3.347859,6.994366,1.252485
LINE304,0.000000,2.180929,0.000000,1.006650,0.225870,1.252484
LINE305,0.000000,3.621191,0.000000,0.368258,2.526480,1.252492
LINE306,0.000000,2.596656,0.188419,3.347706,0.000000,2.188349
LINE307,0.647824,-0.841193,0.000000,0.386695,0.000000,1.574639
LINE308,0.000000,-0.008224,0.000000,3.256472,0.209168,1.252455
LINE309,1.826822,-0.841043,4.651116,3.347823,1.179957,1.252367
LINE310,4.855564,-0.841092,4.689083,3.347859,6.994366,1.252485
LINE311,0.000000,3.505305,0.000000,1.723821,0.225870,1.252484
LINE312,0.000000,2.645528,0.000000,0.829341,2.526480,1.252492
LINE313,0.000000,1.579610,0.188419,3.347706,0.000000,0.240816
LINE314,0.647824,-0.841193,0.000000,0.377032,0.000000,1.639168
LINE315,0.000000,0.974921,0.000000,3.232643,0.209168,1.252455
LINE316,0.259136,-0.841159,0.000000,3.156459,0.000000,-1.395622
LINE317,1.567686,-0.841024,4.651116,3.347823,1.179957,1.252367
LINE318,4.855564,-0.841092,4.689083,3.347859,6.994366,1.252485
LINE319,0.000000,-1.237667,0.000000,2.572851,0.225870,1.252484
LINE320,0.000000,3.497395,0.000000,-1.242263,2.526480,1.252492
LINE321,0.647824,-0.841193,0.000000,0.367421,0.000000,1.545266
LINE322,0.000000,2.769372,0.000000,2.989505,0.209168,1.252455
LINE323,0.259136,-0.841159,0.000000,3.229795,0.000000,-1.512470
LINE324,1.567686,-0.841024,4.651116,3.347823,1.179957,1.252367
LINE325,4.855564,-0.841092,4.689083,3.347859,6.994366,1.252485
LINE326,0.000000,-0.225523,0.000000,-1.089078,2.526480,1.252492
LINE327,0.647824,-0.841193,0.000000,0.438116,0.000000,-1.566814
LINE328,0.000000,3.159624,0.000000,3.112633,0.209168,1.252455
LINE329,0.259136,-0.841159,0.000000,3.212479,0.000000,-1.543423
LINE330,0.000000,-1.542256,0.000000,3.464744,0.225914,1.252369
LINE331,1.567686,-0.841024,4.651116,3.347823,0.954042,1.252366
LINE332,4.855564,-0.841092,4.689083,3.347859,6.994366,1.252485
LINE333,0.647824,-0.841193,0.000000,0.375042,0.000000,-1.551706
LINE334,0.000000,0.873086,0.000000,1.577357,0.209168,1.252455
LINE335,0.259136,-0.841159,0.000000,3.264898,0.000000,-1.541380
LINE336,0.000000,0.629524,0.000000,3.406290,0.225914,1.252369
LINE337,0.000000,-1.562061,3.448505,3.347830,0.000000,1.587836
LINE338,1.567686,-0.841024,1.202610,3.347802,0.954042,1.252366
LINE339,4.855564,-0.841092,4.689083,3.347859,6.994366,1.252485
LINE340,0.647824,-0.841193,0.000000,0.385155,0.000000,4.708610
LINE341,0.000000,0.211841,0.000000,2.290727,0.209168,1.252455
LINE342,0.142107,-0.841159,0.000000,-0.740986,0.000000,1.580701
LINE343,0.117029,-0.841159,0.000000,3.246826,0.000000,-1.559449
LINE344,0.000000,-1.538693,3.448505,3.347830,0.000000,1.587893
LINE345,1.567686,-0.841024,1.202610,3.347802,0.954042,1.252366
LINE346,4.855564,-0.841092,4.689083,3.347859,6.994366,1.252485
LINE347,0.647824,-0.841193,0.000000,0.400678,0.000000,4.303282
LINE348,0.142107,-0.841159,0.000000,3.261189,0.000000,1.281197
LINE349,0.117029,-0.841159,0.000000,3.208226,0.000000,1.579705
LINE350,0.000000,3.781682,3.448505,3.347830,0.000000,1.587645
LINE351,1.567686,-0.841024,1.202610,3.347802,0.954042,1.252366
LINE352,4.855564,-0.841092,4.689083,3.347859,6.994366,1.252485
LINE353,0.647824,-0.841193,0.000000,0.577998,0.000000,-1.558588
LINE354,0.117029,-0.841159,0.000000,3.089009,0.000000,3.389964
LINE355,0.000000,2.785295,3.448505,3.347830,0.000000,1.585227
LINE356,1.567686,-0.841024,1.202610,3.347802,0.954042,1.252366
LINE357,4.855564,-0.841092,4.689083,3.347859,6.994366,1.252485
LINE358,0.647824,-0.841193,0.000000,0.823231,0.000000,-1.482757
LINE359,0.117029,-0.841159,0.000000,3.537319,0.000000,1.909269
LINE360,0.000000,2.576828,3.448505,3.347830,0.000000,1.601364
LINE361,1.567686,-0.841024,1.202610,3.347802,0.954042,1.252366
LINE362,4.855564,-0.841092,4.689083,3.347859,6.994366,1.252485
LINE363,0.647824,-0.841193,0.000000,0.604263,0.000000,-1.533174
LINE364,0.117029,-0.841159,0.000000,-1.001320,0.000000,1.767807
LINE365,0.000000,2.570249,3.448505,3.347830,0.000000,1.566736
LINE366,1.567686,-0.841024,1.202610,3.347802,0.954042,1.252366
LINE367,4.855564,-0.841092,4.689083,3.347859,6.994366,1.252485
LINE368,0.647824,-0.841193,0.000000,2.827670,0.000000,4.499649
LINE369,0.117029,-0.841159,0.000000,3.422846,0.000000,1.739942
LINE370,0.000000,2.456832,3.448505,3.347830,0.000000,1.794370
LINE371,1.567686,-0.841024,1.202610,3.347802,0.954042,1.252366
LINE372,4.855564,-0.841092,4.689083,3.347859,6.994366,1.252485
LINE373,0.647824,-0.841193,0.000000,0.853708,0.000000,4.666312
LINE374,0.117029,-0.841159,0.000000,2.155720,0.000000,4.538058
LINE375,0.000000,2.307045,3.448505,3.347830,0.000000,1.736167
LINE376,1.567686,-0.841024,1.202610,3.347802,0.954042,1.252366
LINE377,4.855564,-0.841092,4.689083,3.347859,4.885306,1.252477
LINE378,0.000000,1.815677,0.000000,1.713692,2.109061,1.252503
LINE379,0.647824,-0.841193,0.000000,4.218366,0.000000,4.682520
LINE380,0.117029,-0.841159,0.000000,1.894427,0.000000,4.681151
LINE381,0.000000,2.289841,3.448505,3.347830,0.000000,1.780460
LINE382,1.567686,-0.841024,1.202610,3.347802,0.954042,1.252366
LINE383,4.855564,-0.841092,4.689083,3.347859,4.885306,1.252477
LINE384,0.000000,-0.540850,0.000000,3.471212,2.109061,1.252503
LINE385,0.000000,2.142548,0.000000,1.488238,0.000000,1.548251
LINE386,0.647824,-0.841193,0.000000,3.358081,0.000000,1.489572
LINE387,0.117029,-0.841159,0.000000,1.553608,0.000000,1.591836
LINE388,0.000000,2.642383,3.448505,3.347830,0.000000,1.680397
LINE389,1.567686,-0.841024,1.202610,3.347802,0.954042,1.252366
LINE390,4.855564,-0.841092,4.689083,3.347859,4.885306,1.252477
LINE391,0.000000,-0.550383,0.000000,3.532210,2.109061,1.252503
LINE392,0.000000,2.133044,0.000000,1.536793,0.000000,1.548936
LINE393,0.000000,2.454079,3.448505,3.347830,0.000000,1.478069
LINE394,1.567686,-0.841024,1.202610,3.347802,0.954042,1.252366
LINE395,0.000000,-0.239590,0.000000,2.385067,1.280424,1.252482
LINE396,4.855564,-0.841092,4.689083,3.347859,3.604882,1.252475
LINE397,0.000000,-0.364746,0.000000,3.254186,2.109061,1.252503
LINE398,0.000000,2.103833,0.000000,1.613670,0.000000,1.547404
LINE399,0.000000,3.498385,3.448505,3.347830,0.000000,4.682284
LINE400,1.567686,-0.841024,1.202610,3.347802,0.954042,1.252366
LINE401,0.000000,-0.209942,0.000000,2.320764,1.280424,1.252482
LINE402,4.855564,-0.841092,4.689083,3.347859,3.604882,1.252475
LINE403,0.000000,-0.739616,0.000000,2.538775,2.109061,1.252503
LINE404,0.000000,1.931296,0.000000,1.678266,0.000000,1.552321
LINE405,0.000000,2.968297,3.448505,3.347830,0.000000,1.683274
LINE406,1.567686,-0.841024,1.202610,3.347802,0.954042,1.252366
LINE407,0.000000,-0.148792,0.000000,2.363782,1.280424,1.252482
LINE408,4.855564,-0.841092,4.689083,3.347859,3.604882,1.252475
LINE409,0.000000,-0.635679,0.000000,3.710047,0.000000,1.901209
LINE410,0.000000,-0.951127,0.000000,0.681558,2.109061,1.252503
LINE411,0.000000,1.487661,0.000000,2.185477,0.000000,1.466572
LINE412,1.567686,-0.841024,1.202610,3.347802,0.954042,1.252366
LINE413,0.000000,0.099743,0.000000,1.682309,1.280424,1.252482
LINE414,4.855564,-0.841092,4.689083,3.347859,3.604882,1.252475
LINE415,0.000000,-0.597246,0.000000,3.791996,0.000000,1.914796
LINE416,0.000000,-1.564281,0.000000,2.058839,2.109061,1.252503
LINE417,0.000000,2.757066,0.000000,2.426544,0.000000,1.696001
LINE418,1.567686,-0.841024,1.202610,3.347802,0.954042,1.252366
LINE419,0.000000,-0.007350,0.000000,1.919420,1.280424,1.252482
LINE420,4.855564,-0.841092,4.689083,3.347859,3.604882,1.252475
LINE421,0.000000,-0.684086,0.000000,3.986679,0.000000,1.972038
LINE422,0.000000,-1.218976,0.000000,1.016972,2.109061,1.252503
LINE423,0.000000,2.611377,0.000000,2.789692,0.000000,1.661679
LINE424,1.567686,-0.841024,1.202610,3.347802,0.954042,1.252366
LINE425,0.000000,-0.939452,0.000000,0.341294,0.000000,1.200589
LINE426,0.000000,0.040886,0.000000,1.729448,1.280424,1.252482
LINE427,4.855564,-0.841092,4.689083,3.347859,3.604882,1.252475
LINE428,0.000000,-0.715297,0.000000,3.636388,0.000000,1.960327
LINE429,0.000000,3.244749,0.000000,1.076457,2.109061,1.252503
LINE430,0.000000,2.666023,0.000000,2.771797,0.000000,1.655490
LINE431,1.567686,-0.841024,1.202610,3.347802,0.954042,1.252366
LINE432,0.000000,0.046532,0.000000,0.046532,0.000000,1.042627
LINE433,0.000000,0.053126,0.000000,1.692644,1.280424,1.252482
LINE434,4.855564,-0.841092,4.689083,3.347859,3.604882,1.252475
LINE435,0.000000,-0.778762,0.000000,3.707833,0.000000,1.922323
LINE436,0.000000,3.562193,0.000000,1.596253,2.109061,1.252503
LINE437,0.000000,2.759327,0.000000,2.911938,0.000000,1.619765
LINE438,1.567686,-0.841024,1.202610,3.347802,0.954042,1.252366
LINE439,0.000000,2.799855,0.000000,1.027277,0.000000,-1.487885
LINE440,0.000000,-0.006789,0.000000,1.853915,1.280424,1.252482
LINE441,4.855564,-0.841092,4.689083,3.347859,3.604882,1.252475
LINE442,0.000000,-0.765784,0.000000,3.674752,0.000000,1.956398
LINE443,0.000000,2.583950,0.000000,0.786587,2.109061,1.252503
LINE444,0.000000,2.609876,0.000000,2.968370,0.000000,1.594380
LINE445,1.567686,-0.841024,1.202610,3.347802,0.954042,1.252366
LINE446,0.000000,1.651335,0.000000,1.651335,0.000000,1.420663
LINE447,0.000000,-0.000845,0.000000,1.691454,1.280424,1.252482
LINE448,4.855564,-0.841092,4.689083,3.347859,3.604882,1.252475
LINE449,0.000000,-0.857724,0.000000,3.521118,0.000000,2.000916
LINE450,0.000000,2.984385,0.000000,0.949338,2.109061,1.252503
LINE451,0.000000,2.721806,0.000000,3.130324,0.000000,1.564955
LINE452,1.567686,-0.841024,1.202610,3.347802,0.954042,1.252366
LINE453,0.000000,4.602816,0.000000,4.602816,0.000000,1.410676
LINE454,0.000000,-0.055832,0.000000,1.607973,1.280424,1.252482
LINE455,4.855564,-0.841092,4.689083,3.347859,3.604882,1.252475
LINE456,0.000000,-0.835950,0.000000,3.648657,0.000000,2.106721
LINE457,0.000000,0.222111,0.000000,-0.091716,2.109061,1.252503
LINE458,0.000000,2.666967,0.000000,2.951977,0.000000,1.573894
LINE459,1.367039,-0.841021,1.202610,3.347802,0.954042,1.252366
LINE460,0.000000,-0.337290,0.000000,0.087373,0.000000,1.525662
LINE461,0.200647,-0.841048,0.000000,0.355185,0.000000,-0.816039
LINE462,0.000000,0.007957,0.000000,1.469457,1.280424,1.252482
LINE463,4.855564,-0.841092,4.689083,3.347859,3.604882,1.252475
LINE464,0.000000,-0.886365,0.000000,3.367019,0.000000,1.979251
LINE465,0.000000,2.275284,0.000000,2.897205,0.000000,1.588052
LINE466,1.367039,-0.841021,1.202610,3.347802,0.954042,1.252366
LINE467,0.000000,0.624372,0.000000,4.156353,0.000000,0.396820
LINE468,0.000000,0.014461,0.000000,3.935101,0.000000,2.129383
LINE469,0.200647,-0.841048,0.000000,0.322843,0.000000,-0.363777
LINE470,0.000000,0.034431,0.000000,1.406317,1.280424,1.252482
LINE471,4.855564,-0.841092,4.689083,3.347859,3.604882,1.252475
LINE472,0.000000,-0.633042,0.000000,3.610020,0.000000,1.879494
LINE473,0.000000,2.389642,0.000000,2.885423,0.000000,1.572156
LINE474,1.367039,-0.841021,1.202610,3.347802,0.954042,1.252366
LINE475,0.000000,-0.108989,0.000000,2.957643,0.000000,1.772708
LINE476,0.200647,-0.841048,0.000000,0.445588,0.000000,-0.834051
LINE477,0.000000,0.016937,0.000000,1.532688,1.280424,1.252482
LINE478,4.855564,-0.841092,4.689083,3.347859,3.604882,1.252475
LINE479,0.000000,-0.802628,0.000000,3.446589,0.000000,1.764653
LINE480,0.000000,2.260926,0.000000,2.823989,0.000000,3.641918
LINE481,0.965725,-0.841015,1.202610,3.347802,0.954042,1.252366
LINE482,0.000000,4.535791,0.000000,2.940413,0.000000,4.254456
LINE483,0.401314,-0.841034,0.000000,0.268671,0.000000,4.694635
LINE484,0.200647,-0.841048,0.000000,0.396195,0.000000,0.643963
LINE485,0.000000,0.220300,0.000000,1.532384,1.280424,1.252482
LINE486,4.855564,-0.841092,4.689083,3.347859,3.604882,1.252475
LINE487,0.000000,-0.933837,0.000000,3.225107,0.000000,1.866253
LINE488,0.000000,-0.534038,0.000000,3.058357,0.000000,2.930402
LINE489,0.965725,-0.841015,1.202610,3.347802,0.954042,1.252366
LINE490,0.000000,-0.612801,0.000000,0.969080,0.000000,2.480708
LINE491,0.179755,-0.841034,0.000000,0.245900,0.000000,4.693287
LINE492,0.221559,-0.841034,0.000000,1.364268,0.000000,-1.537761
LINE493,0.200647,-0.841048,0.000000,0.337869,0.000000,0.318268
LINE494,0.000000,0.242662,0.000000,1.789586,1.280424,1.252482
LINE495,4.855564,-0.841092,4.689083,3.347859,3.604882,1.252475
LINE496,0.000000,-1.087813,0.000000,3.024272,0.000000,1.886079
LINE497,0.000000,0.344303,0.000000,2.591380,0.000000,-1.562241
LINE498,0.965725,-0.841015,1.202610,3.347802,0.954042,1.252366
LINE499,0.000000,4.021841,0.000000,4.021841,0.000000,-1.352377
LINE500,0.179755,-0.841034,0.000000,0.331400,0.000000,4.692421
LINE501,0.221559,-0.841034,0.000000,-0.209489,0.000000,-0.958583
LINE502,0.200647,-0.841048,0.000000,0.329422,0.000000,0.008744
LINE503,0.000000,0.146043,0.000000,0.769270,1.280424,1.252482
LINE504,4.855564,-0.841092,4.689083,3.347859,3.604882,1.252475
LINE505,0.000000,-1.124208,0.000000,2.502653,0.000000,1.969347
LINE506,0.000000,-0.149575,0.000000,3.066227,0.000000,-0.106394
LINE507,0.965725,-0.841015,1.202610,3.347802,0.954042,1.252366
LINE508,0.000000,3.075921,0.000000,0.831078,0.000000,1.546943
LINE509,0.179755,-0.841034,0.000000,0.725506,0.000000,4.701280
LINE510,0.200647,-0.841048,0.000000,0.337204,0.000000,-0.886530
LINE511,0.000000,3.170033,0.000000,0.541841,1.280424,1.252482
LINE512,0.000000,0.548475,0.762356,3.347722,0.000000,4.706820
LINE513,4.855564,-0.841092,3.926727,3.347886,3.604882,1.252475
LINE514,0.000000,-1.551250,0.000000,2.748790,0.000000,1.920083
LINE515,0.000000,1.418173,1.202610,3.347802,0.954042,1.252366
LINE516,0.000000,4.414261,0.000000,3.295292,0.000000,4.580833
LINE517,0.965725,-0.841015,0.000000,3.650816,0.000000,-1.548046
LINE518,0.179755,-0.841034,0.000000,0.965996,0.000000,4.694033
LINE519,0.200647,-0.841048,0.000000,0.371902,0.000000,-1.047698
LINE520,0.000000,3.525665,0.000000,-0.595946,1.280424,1.252482
LINE521,0.000000,2.884669,0.762356,3.347722,0.000000,4.509244
LINE522,4.855564,-0.841092,3.926727,3.347886,3.604882,1.252475
LINE523,0.000000,-1.201758,0.000000,2.729383,0.000000,1.927628
LINE524,0.000000,1.401953,1.202610,3.347802,0.954042,1.252366
LINE525,0.000000,1.704133,0.000000,1.704133,0.000000,0.905973
LINE526,0.965725,-0.841015,0.000000,3.632493,0.000000,-1.546755
LINE527,0.179755,-0.841034,0.000000,1.487302,0.000000,4.668689
LINE528,0.200647,-0.841048,0.000000,0.414614,0.000000,-1.159925
LINE529,0.000000,-0.561401,0.000000,4.078933,1.280424,1.252482
LINE530,4.855564,-0.841092,3.926727,3.347886,3.604882,1.252475
LINE531,0.000000,-0.827749,0.000000,2.626913,0.000000,1.863942
LINE532,0.000000,1.395137,1.202610,3.347802,0.954042,1.252366
LINE533,0.000000,-1.352202,0.000000,1.052858,0.000000,0.968795
LINE534,0.965725,-0.841015,0.000000,3.630306,0.000000,-1.550227
LINE535,0.179755,-0.841034,0.000000,1.252622,0.000000,-1.460838
LINE536,0.200647,-0.841048,0.000000,0.648415,0.000000,-0.062512
LINE537,0.000000,3.068159,0.000000,3.712955,1.046105,1.252483
LINE538,0.000000,4.607017,0.000000,-0.395567,0.234318,1.252473
LINE539,4.855564,-0.841092,3.926727,3.347886,3.604882,1.252475
LINE540,0.000000,-1.151646,0.000000,2.306214,0.000000,2.128336
LINE541,0.000000,1.377130,1.202610,3.347802,0.954042,1.252366
LINE542,0.000000,1.867032,0.000000,2.211205,0.000000,1.473886
LINE543,0.965725,-0.841015,0.000000,3.590758,0.000000,-1.539983
LINE544,0.179755,-0.841034,0.000000,2.806091,0.000000,-1.543940
LINE545,0.200647,-0.841048,0.000000,0.475508,0.000000,0.325099
LINE546,0.000000,2.492695,0.000000,-1.236601,1.046105,1.252483
LINE547,4.855564,-0.841092,3.926727,3.347886,3.604882,1.252475
LINE548,0.000000,-0.825683,0.000000,2.118405,0.000000,1.891030
LINE549,0.000000,1.379858,1.202610,3.347802,0.954042,1.252366
LINE550,0.000000,1.034611,0.000000,0.106068,0.000000,3.864655
LINE551,0.229932,-0.841018,0.000000,3.657639,0.000000,-1.565482
LINE552,0.735793,-0.841015,0.000000,2.856914,0.000000,2.210382
LINE553,0.179755,-0.841034,0.000000,1.877121,0.000000,4.696015
LINE554,0.200647,-0.841048,0.000000,0.422640,0.000000,0.598674
LINE555,0.000000,-0.254559,0.000000,3.232600,1.046105,1.252483
LINE556,4.855564,-0.841092,3.926727,3.347886,3.604882,1.252475
LINE557,0.000000,-0.891545,0.000000,1.871465,0.000000,2.297649
LINE558,0.000000,1.375420,1.202610,3.347802,0.954042,1.252366
LINE559,0.000000,2.846887,0.000000,-1.234986,0.000000,0.158320
LINE560,0.229932,-0.841018,0.000000,3.391883,0.000000,4.648694
LINE561,0.735793,-0.841015,0.000000,3.273694,0.000000,4.513628
LINE562,0.179755,-0.841034,0.000000,1.578952,0.000000,0.053290
LINE563,0.200647,-0.841048,0.000000,0.313839,0.000000,0.307371
LINE564,4.855564,-0.841092,3.926727,3.347886,3.604882,1.252475
LINE565,0.000000,4.705341,0.000000,2.582762,0.000000,0.930866
LINE566,0.000000,1.547993,0.201123,3.347796,0.954042,1.252366
LINE567,0.000000,0.485857,0.000000,-0.578000,0.000000,4.639675
LINE568,0.000000,1.316493,1.001487,3.347803,0.000000,1.519572
LINE569,0.229932,-0.841018,0.000000,3.576489,0.000000,1.577113
LINE570,0.200647,-0.841048,0.000000,0.522334,0.000000,-1.173218
LINE571,4.855564,-0.841092,3.926727,3.347886,3.604882,1.252475
LINE572,0.000000,1.801814,0.201123,3.347796,0.954042,1.252366
LINE573,0.000000,4.530356,0.000000,4.530356,0.000000,-1.255466
LINE574,0.000000,1.310418,1.001487,3.347803,0.000000,1.522764
LINE575,0.229932,-0.841018,0.000000,3.593556,0.000000,1.616632
LINE576,0.200647,-0.841048,0.000000,0.327890,0.000000,0.357312
LINE577,4.855564,-0.841092,3.926727,3.347886,3.604882,1.252475
LINE578,0.000000,-0.241020,0.201123,3.347796,0.954042,1.252366
LINE579,0.000000,2.395368,0.000000,-1.202492,0.000000,4.640833
LINE580,0.000000,2.111084,0.000000,2.648065,0.000000,1.795484
LINE581,0.000000,1.488225,1.001487,3.347803,0.000000,1.524102
LINE582,0.229932,-0.841018,0.000000,3.750019,0.000000,1.605467
LINE583,0.200647,-0.841048,0.000000,-0.021122,0.000000,1.312991
LINE584,0.000000,0.360258,0.192682,3.347714,0.000000,1.579497
LINE585,4.855564,-0.841092,3.734045,3.347895,3.604882,1.252475
LINE586,0.000000,-0.542122,0.201123,3.347796,0.954042,1.252366
LINE587,0.000000,-0.222604,0.000000,3.827213,0.000000,1.723103
LINE588,0.000000,1.979561,0.000000,2.678164,0.000000,1.742570
LINE589,0.000000,1.871725,1.001487,3.347803,0.000000,1.526798
LINE590,0.229932,-0.841018,0.000000,4.272404,0.000000,2.713278
LINE591,0.200647,-0.841048,0.000000,0.196049,0.000000,1.356276
LINE592,0.000000,0.326962,0.192682,3.347714,0.000000,1.577961
LINE593,4.855564,-0.841092,3.734045,3.347895,3.604882,1.252475
LINE594,0.000000,4.003771,0.201123,3.347796,0.000000,-1.207008
LINE595,0.000000,0.031853,0.000000,4.027959,0.954042,1.252366
LINE596,0.000000,2.334728,0.000000,2.318938,0.000000,1.812929
LINE597,0.000000,1.875860,1.001487,3.347803,0.000000,1.531710
LINE598,0.229932,-0.841018,0.000000,3.047949,0.000000,1.581718
LINE599,0.200647,-0.841048,0.000000,3.049990,0.000000,1.455560
LINE600,0.000000,0.166644,0.192682,3.347714,0.000000,1.580119
LINE601,0.000000,1.297622,0.000000,3.760434,0.188300,1.252467
LINE602,4.855564,-0.841092,3.734045,3.347895,3.416582,1.252476
LINE603,0.000000,2.920827,0.201123,3.347796,0.000000,-0.665773
LINE604,0.000000,1.452153,0.000000,4.423043,0.000000,-1.488427
LINE605,0.000000,2.505689,0.000000,3.257920,0.000000,3.307802
LINE606,0.000000,0.333115,0.000000,-0.444422,0.954042,1.252366
LINE607,0.000000,4.639177,0.000000,1.270040,0.000000,2.973935
LINE608,0.000000,2.230115,0.000000,2.946600,0.000000,2.817353
LINE609,0.000000,1.861278,1.001487,3.347803,0.000000,1.530814
LINE610,0.229932,-0.841018,0.000000,1.808924,0.000000,4.382873
LINE611,0.200647,-0.841048,0.000000,1.212727,0.000000,1.430577
LINE612,0.000000,0.010258,0.192682,3.347714,0.000000,1.573034
LINE613,0.000000,0.019779,0.000000,3.337144,0.188300,1.252467
LINE614,4.855564,-0.841092,3.734045,3.347895,3.416582,1.252476
LINE615,0.000000,-1.174667,0.201123,3.347796,0.000000,-0.067519
LINE616,0.000000,-0.555629,0.000000,-0.555629,0.000000,4.217437
LINE617,0.000000,-1.036569,0.000000,2.830669,0.000000,1.926155
LINE618,0.000000,1.964172,0.000000,-0.932730,0.954042,1.252366
LINE619,0.000000,2.466599,0.000000,2.802747,0.000000,3.411573
LINE620,0.000000,1.753847,1.001487,3.347803,0.000000,1.532248
LINE621,0.200647,-0.841048,0.000000,3.388211,0.000000,-0.906891
LINE622,0.000000,0.169433,0.192682,3.347714,0.000000,1.589312
LINE623,0.000000,3.185787,0.226205,3.347702,0.000000,-1.404374
LINE624,4.855564,-0.841092,3.507841,3.347907,3.416582,1.252476
LINE625,0.000000,-1.174667,0.201123,3.347796,0.000000,1.579626
LINE626,0.000000,2.596351,0.000000,3.210854,0.000000,2.754905
LINE627,0.000000,1.688868,1.001487,3.347803,0.000000,1.535245
LINE628,0.200647,-0.841048,0.000000,1.192354,0.000000,-1.227915
LINE629,0.000000,0.040189,0.192682,3.347714,0.000000,1.586952
LINE630,0.000000,3.328305,0.226205,3.347702,0.000000,-1.398643
LINE631,4.855564,-0.841092,3.507841,3.347907,3.416582,1.252476
LINE632,0.000000,-1.050312,0.201123,3.347796,0.000000,-0.067519
LINE633,0.000000,3.330069,0.000000,2.833525,0.000000,3.524210
LINE634,0.000000,1.517481,1.001487,3.347803,0.000000,1.535592
LINE635,0.000000,-0.104862,0.192682,3.347714,0.000000,1.586505
LINE636,0.000000,3.265092,0.226205,3.347702,0.000000,-1.469269
LINE637,4.855564,-0.841092,3.507841,3.347907,3.416582,1.252476
LINE638,0.000000,-0.067519,0.201123,3.347796,0.000000,-0.067519
LINE639,0.000000,3.105487,0.000000,0.565854,0.000000,3.996183
LINE640,0.000000,1.417785,1.001487,3.347803,0.000000,1.536172
LINE641,0.000000,-0.153376,0.192682,3.347714,0.000000,1.586371
LINE642,0.000000,0.212296,0.226205,3.347702,0.000000,-1.447953
LINE643,4.855564,-0.841092,3.507841,3.347907,3.416582,1.252476
LINE644,0.000000,3.707923,0.000000,3.707923,0.000000,4.399604
LINE645,0.000000,1.443660,1.001487,3.347803,0.000000,1.539133
LINE646,0.000000,-0.154973,0.192682,3.347714,0.000000,1.585885
LINE647,0.000000,0.634715,0.226205,3.347702,0.000000,-1.446505
LINE648,4.855564,-0.841092,3.507841,3.347907,3.416582,1.252476
LINE649,0.000000,3.804198,0.000000,0.462901,0.000000,4.153708
LINE650,0.000000,1.765542,1.001487,3.347803,0.000000,1.525792
LINE651,0.000000,-0.156259,0.192682,3.347714,0.000000,1.585792
LINE652,0.000000,0.895209,0.226205,3.347702,0.000000,-1.529743
LINE653,4.855564,-0.841092,3.507841,3.347907,3.416582,1.252476
LINE654,0.000000,3.037737,0.000000,0.051112,0.000000,1.897337
LINE655,0.000000,2.064586,0.821306,3.347804,0.000000,1.530521
LINE656,0.000000,-0.570360,0.180181,3.347799,0.000000,1.567494
LINE657,0.000000,-0.142029,0.192682,3.347714,0.000000,1.585812
LINE658,0.000000,0.529319,0.226205,3.347702,0.000000,4.689017
LINE659,4.855564,-0.841092,3.507841,3.347907,3.416582,1.252476
LINE660,0.000000,-1.110863,0.000000,0.140971,0.000000,-1.016971
LINE661,0.000000,2.347511,0.821306,3.347804,0.000000,1.552167
LINE662,0.000000,-0.017527,0.180181,3.347799,0.000000,1.568022
LINE663,0.000000,-0.173318,0.192682,3.347714,0.000000,1.586289
LINE664,0.000000,0.687987,0.226205,3.347702,0.000000,-1.334314
LINE665,4.855564,-0.841092,3.507841,3.347907,3.416582,1.252476
LINE666,0.000000,4.244902,0.000000,0.702247,0.000000,0.409826
LINE667,0.000000,-0.361517,0.821306,3.347804,0.000000,1.583007
LINE668,0.000000,-0.106976,0.180181,3.347799,0.000000,1.541361
LINE669,0.000000,-0.160019,0.192682,3.347714,0.000000,1.589355
LINE670,0.000000,0.093783,0.226205,3.347702,0.000000,4.655478
LINE671,3.948298,-0.841069,0.000000,0.223470,0.000000,1.332640
LINE672,0.907266,-0.841189,3.507841,3.347907,3.416582,1.252476
LINE673,0.000000,0.039673,0.000000,2.615900,0.000000,-1.352578
LINE674,0.000000,0.390347,0.821306,3.347804,0.000000,1.620639
LINE675,0.000000,0.140776,0.180181,3.347799,0.000000,1.577864
LINE676,0.000000,-0.246137,0.192682,3.347714,0.000000,1.583197
LINE677,0.000000,1.524539,0.226205,3.347702,0.000000,-1.547163
LINE678,3.948298,-0.841069,0.000000,0.219716,0.000000,1.388201
LINE679,0.907266,-0.841189,3.507841,3.347907,3.416582,1.252476
LINE680,0.000000,1.900410,0.000000,3.462443,0.000000,-0.321013
LINE681,0.000000,3.062722,0.821306,3.347804,0.000000,1.634198
LINE682,0.000000,-0.168338,0.192682,3.347714,0.000000,1.586416
LINE683,0.000000,0.911904,0.226205,3.347702,0.000000,1.557929
LINE684,3.948298,-0.841069,0.000000,0.256334,0.000000,1.277217
LINE685,0.907266,-0.841189,3.507841,3.347907,3.416582,1.252476
LINE686,0.000000,-0.211522,0.192682,3.347714,0.000000,1.588933
LINE687,0.000000,2.887063,0.226205,3.347702,0.000000,4.583121
LINE688,3.948298,-0.841069,0.000000,0.267744,0.000000,-1.432939
LINE689,0.000000,2.570821,0.000000,3.037105,0.414301,1.252466
LINE690,0.907266,-0.841189,3.507841,3.347907,3.002281,1.252477
LINE691,0.000000,-0.158149,0.192682,3.347714,0.000000,1.587852
LINE692,3.948298,-0.841069,0.000000,0.289937,0.000000,0.624590
LINE693,0.000000,2.578991,0.000000,3.017114,0.205058,1.252466
LINE694,0.000000,-0.434056,0.000000,4.449955,0.209243,1.252466
LINE695,0.000000,4.696648,0.121492,3.347745,0.000000,1.415232
LINE696,0.907266,-0.841189,3.386348,3.347913,3.002281,1.252477
LINE697,0.000000,-0.098356,0.192682,3.347714,0.000000,1.587309
LINE698,3.948298,-0.841069,0.000000,0.335810,0.000000,-1.070752
LINE699,0.000000,2.685877,0.000000,2.986935,0.205058,1.252466
LINE700,0.000000,0.418893,0.000000,3.099955,0.209243,1.252466
LINE701,0.000000,-1.171383,0.121492,3.347745,0.000000,1.486440
LINE702,0.907266,-0.841189,3.386348,3.347913,3.002281,1.252477
LINE703,0.000000,-0.169968,0.192682,3.347714,0.000000,1.584961
LINE704,3.948298,-0.841069,0.000000,0.331009,0.000000,-1.449855
LINE705,0.000000,2.712291,0.000000,3.109062,0.205058,1.252466
LINE706,0.907266,-0.841189,3.386348,3.347913,3.002281,1.252477
LINE707,0.000000,2.795572,0.000000,0.950117,0.000000,1.678736
LINE708,0.000000,-0.176140,0.192682,3.347714,0.000000,1.586935
LINE709,3.948298,-0.841069,0.000000,0.292106,0.000000,-1.457248
LINE710,0.000000,3.126639,0.000000,3.224463,0.205058,1.252466
LINE711,0.480804,-0.841215,3.386348,3.347913,3.002281,1.252477
LINE712,0.426462,-0.841160,0.000000,3.851423,0.000000,1.666173
LINE713,0.000000,2.543139,0.000000,0.823517,0.000000,1.946063
LINE714,0.000000,-0.125440,0.192682,3.347714,0.000000,1.587879
LINE715,3.948298,-0.841069,0.000000,0.294320,0.000000,-1.452623
LINE716,0.000000,2.878164,0.000000,3.249197,0.205058,1.252466
LINE717,0.480804,-0.841215,3.386348,3.347913,3.002281,1.252477
LINE718,0.426462,-0.841160,0.000000,3.829032,0.000000,1.663140
LINE719,0.000000,2.461152,0.000000,-0.173869,0.000000,2.067439
LINE720,0.000000,-0.299216,0.192682,3.347714,0.000000,1.595666
LINE721,3.948298,-0.841069,0.000000,0.276319,0.000000,-1.455075
LINE722,0.000000,2.678283,0.000000,3.443046,0.205058,1.252466
LINE723,0.480804,-0.841215,0.406460,3.347906,3.002281,1.252477
LINE724,0.000000,-0.236078,2.979889,3.347914,0.000000,1.573331
LINE725,0.426462,-0.841160,0.000000,3.795288,0.000000,1.681627
LINE726,0.000000,2.061760,0.000000,0.641467,0.000000,2.346706
LINE727,0.000000,-0.258059,0.192682,3.347714,0.000000,1.629507
LINE728,3.948298,-0.841069,0.000000,0.233013,0.000000,-1.465498
LINE729,0.000000,2.298001,0.000000,3.597430,0.205058,1.252466
LINE730,0.480804,-0.841215,0.406460,3.347906,3.002281,1.252477
LINE731,0.000000,-0.243410,2.979889,3.347914,0.000000,1.573118
LINE732,0.426462,-0.841160,0.000000,3.871098,0.000000,1.644096
LINE733,0.000000,2.276906,0.000000,0.024152,0.000000,2.663006
LINE734,0.000000,-0.505225,0.192682,3.347714,0.000000,1.624590
LINE735,3.948298,-0.841069,0.000000,0.291764,0.000000,-1.482212
LINE736,0.000000,2.880080,0.000000,-0.506007,0.205058,1.252466
LINE737,0.480804,-0.841215,0.406460,3.347906,3.002281,1.252477
LINE738,0.000000,-0.240926,2.979889,3.347914,0.000000,1.572891
LINE739,0.426462,-0.841160,0.000000,3.914092,0.000000,1.651976
LINE740,0.000000,2.437259,0.000000,-0.007879,0.000000,1.715297
LINE741,0.000000,-0.561566,0.192682,3.347714,0.000000,1.644526
LINE742,3.948298,-0.841069,0.000000,0.297094,0.000000,-1.466009
LINE743,0.000000,2.737919,0.000000,3.363314,0.205058,1.252466
LINE744,0.480804,-0.841215,0.406460,3.347906,3.002281,1.252477
LINE745,0.000000,4.219372,2.753584,3.347916,0.000000,1.427265
LINE746,0.000000,-0.224717,0.226304,3.347896,0.000000,1.563916
LINE747,0.426462,-0.841160,0.000000,4.010640,0.000000,1.652036
LINE748,0.000000,2.313020,0.000000,0.569799,0.000000,1.645958
LINE749,0.000000,0.066179,0.192682,3.347714,0.000000,2.130657
LINE750,3.948298,-0.841069,0.000000,0.393112,0.000000,-1.533782
LINE751,0.000000,3.681293,0.000000,-1.194543,0.205058,1.252466
LINE752,0.480804,-0.841215,0.406460,3.347906,0.000000,1.340553
LINE753,0.000000,-0.829825,0.000000,3.100313,3.002281,1.252477
LINE754,0.000000,-0.741910,2.753584,3.347916,0.000000,1.579956
LINE755,0.000000,-0.446924,0.226304,3.347896,0.000000,1.552229
LINE756,0.426462,-0.841160,0.000000,4.187671,0.000000,1.643108
LINE757,0.000000,2.293698,0.000000,-0.278342,0.000000,1.612950
LINE758,0.000000,0.830090,0.192682,3.347714,0.000000,4.629395
LINE759,3.948298,-0.841069,0.000000,0.365648,0.000000,-1.539955
LINE760,0.000000,2.682331,0.000000,-0.591431,0.205058,1.252466
LINE761,0.480804,-0.841215,0.406460,3.347906,0.000000,1.324405
LINE762,0.000000,-0.832828,0.000000,3.110907,3.002281,1.252477
LINE763,0.000000,-0.527377,0.226304,3.347896,0.000000,1.547665
LINE764,0.426462,-0.841160,0.000000,4.186078,0.000000,1.635487
LINE765,0.000000,2.407547,0.000000,0.478844,0.000000,1.628181
LINE766,0.000000,4.127713,0.192682,3.347714,0.000000,1.759584
LINE767,3.948298,-0.841069,0.000000,0.405610,0.000000,-1.537980
LINE768,0.000000,4.646187,0.000000,3.933062,0.205058,1.252466
LINE769,0.480804,-0.841215,0.406460,3.347906,0.000000,1.308910
LINE770,0.000000,3.294129,0.000000,3.758126,1.704240,1.252479
LINE771,0.000000,-0.872480,0.000000,3.147014,1.298041,1.252474
LINE772,0.000000,-0.709114,0.226304,3.347896,0.000000,1.495596
LINE773,0.426462,-0.841160,0.000000,4.154948,0.000000,1.630215
LINE774,0.000000,2.529351,0.000000,0.872134,0.000000,1.326213
LINE775,0.000000,2.386909,0.192682,3.347714,0.000000,1.778291
LINE776,3.948298,-0.841069,0.000000,0.384080,0.000000,-1.532406
LINE777,0.000000,-0.237514,0.000000,3.340171,0.205058,1.252466
LINE778,0.480804,-0.841215,0.406460,3.347906,0.000000,1.299021
LINE779,0.000000,3.079931,0.000000,-1.349290,1.704240,1.252479
LINE780,0.000000,-0.893593,0.000000,3.240002,1.298041,1.252474
LINE781,0.000000,3.539489,0.226304,3.347896,0.000000,1.483754
LINE782,0.426462,-0.841160,0.000000,4.144841,0.000000,1.630355
LINE783,0.000000,1.903187,0.000000,0.302650,0.000000,1.471431
LINE784,0.000000,3.323116,0.192682,3.347714,0.000000,1.562394
LINE785,3.948298,-0.841069,0.000000,0.462515,0.000000,-1.534708
LINE786,0.480804,-0.841215,0.406460,3.347906,0.000000,1.303870
LINE787,0.000000,-1.032340,0.000000,3.505846,1.298041,1.252474
LINE788,0.000000,3.103268,0.226304,3.347896,0.000000,1.511058
LINE789,0.426462,-0.841160,0.000000,4.238064,0.000000,1.626491
LINE790,0.000000,0.274687,0.000000,1.421556,0.000000,1.418252
LINE791,2.496993,-0.841067,0.000000,0.356801,0.000000,-1.555629
LINE792,1.451304,-0.841075,0.000000,-0.914452,0.000000,1.846773
LINE793,0.480804,-0.841215,0.406460,3.347906,0.000000,1.322045
LINE794,0.000000,-1.046048,0.000000,3.639113,1.298041,1.252474
LINE795,0.000000,4.117465,0.226304,3.347896,0.000000,1.575626
LINE796,0.426462,-0.841160,0.000000,4.384416,0.000000,1.637781
LINE797,0.000000,0.860231,0.000000,1.434824,0.000000,1.576435
LINE798,2.496993,-0.841067,0.000000,0.334330,0.000000,-1.534870
LINE799,1.451304,-0.841075,0.000000,4.318619,0.000000,4.647104
LINE800,0.480804,-0.841215,0.000000,-0.630057,0.000000,1.670915
LINE801,0.000000,3.643594,0.406460,3.347906,0.000000,1.031722
LINE802,0.000000,-1.353649,0.000000,3.314178,1.298041,1.252474
LINE803,0.000000,4.456434,0.226304,3.347896,0.000000,1.548323
LINE804,0.426462,-0.841160,0.000000,4.137417,0.000000,1.622290
LINE805,0.000000,2.101216,0.000000,-0.036667,0.000000,4.605571
LINE806,2.496993,-0.841067,0.000000,0.340458,0.000000,-1.232361
LINE807,1.451304,-0.841075,0.000000,-1.209550,0.000000,4.648325
LINE808,0.480804,-0.841215,0.000000,-0.573222,0.000000,1.692958
LINE809,0.000000,4.011791,0.406460,3.347906,0.000000,1.110787
LINE810,0.000000,0.801937,0.000000,-1.477096,0.000000,0.207744
LINE811,0.000000,-1.053635,0.000000,3.312330,1.298041,1.252474
LINE812,0.000000,0.196843,0.226304,3.347896,0.000000,4.544820
LINE813,0.426462,-0.841160,0.000000,4.238461,0.000000,1.657558
LINE814,0.000000,-0.520998,0.000000,-1.010258,0.000000,-1.123454
LINE815,2.496993,-0.841067,0.000000,0.619482,0.000000,1.674068
LINE816,1.451304,-0.841075,0.000000,3.060227,0.000000,3.021959
LINE817,0.480804,-0.841215,0.000000,-0.434070,0.000000,1.662642
LINE818,0.000000,4.257200,0.406460,3.347906,0.000000,1.132302
LINE819,0.000000,0.646842,0.000000,3.535918,0.000000,1.588839
LINE820,0.000000,-0.870469,0.000000,2.298665,1.298041,1.252474
LINE821,0.426462,-0.841160,0.000000,4.312670,0.000000,1.663297
LINE822,0.000000,-0.407327,0.000000,-0.412547,0.000000,-1.065472
LINE823,2.496993,-0.841067,0.000000,0.581190,0.000000,1.549446
LINE824,0.480804,-0.841215,0.000000,-0.301036,0.000000,1.682226
LINE825,0.000000,4.307710,0.406460,3.347906,0.000000,1.124642
LINE826,0.000000,3.918505,0.000000,3.536373,0.000000,-0.656969
LINE827,0.000000,-0.922922,0.000000,4.610172,1.298041,1.252474
LINE828,0.426462,-0.841160,0.000000,4.321589,0.000000,1.674366
LINE829,0.000000,4.655854,0.000000,-1.242462,0.000000,1.667302
LINE830,2.496993,-0.841067,0.000000,0.312454,0.000000,1.507819
LINE831,0.480804,-0.841215,0.000000,-0.153637,0.000000,3.562077
LINE832,0.000000,4.372017,0.406460,3.347906,0.000000,1.240944
LINE833,0.000000,4.070809,0.000000,0.737377,0.000000,-1.478191
LINE834,0.000000,3.476503,0.000000,3.476503,1.298041,1.252474
LINE835,0.426462,-0.841160,0.000000,4.337290,0.000000,1.683138
LINE836,2.496993,-0.841067,0.000000,1.250599,0.000000,1.620095
LINE837,0.480804,-0.841215,0.000000,-0.068938,0.000000,4.286562
LINE838,0.000000,4.300830,0.406460,3.347906,0.000000,1.221511
LINE839,0.000000,2.124845,0.000000,0.709724,0.000000,0.015045
LINE840,0.426462,-0.841160,0.000000,4.289953,0.000000,1.680596
LINE841,2.496993,-0.841067,0.000000,3.309657,0.000000,1.555189
LINE842,0.480804,-0.841215,0.000000,-0.019390,0.000000,4.514597
LINE843,0.000000,3.899451,0.406460,3.347906,0.000000,1.567054
LINE844,0.000000,0.401121,0.000000,2.578143,0.000000,0.163325
LINE845,0.000000,0.612338,0.000000,2.699184,0.000000,-1.375430
LINE846,0.426462,-0.841160,0.000000,4.325872,0.000000,1.676421
LINE847,2.496993,-0.841067,0.000000,-0.553424,0.000000,1.567475
LINE848,0.480804,-0.841215,0.000000,0.083300,0.000000,1.773031
LINE849,0.000000,4.264364,0.406460,3.347906,0.000000,1.559452
LINE850,0.000000,0.534522,0.000000,2.758796,0.000000,-0.003088
LINE851,0.000000,3.248049,0.000000,1.142498,0.000000,0.912080
LINE852,0.426462,-0.841160,0.000000,4.495935,0.000000,1.653873
LINE853,2.496993,-0.841067,0.000000,0.842217,0.000000,1.622559
LINE854,0.480804,-0.841215,0.000000,-0.032495,0.000000,1.890793
LINE855,0.000000,-1.393336,0.406460,3.347906,0.000000,1.566700
LINE856,0.000000,0.520551,0.000000,2.925925,0.000000,-0.034539
LINE857,0.000000,2.894299,0.000000,1.803866,0.000000,2.268437
LINE858,0.426462,-0.841160,0.000000,-1.452185,0.000000,1.649481
LINE859,0.221661,-0.841083,0.000000,3.524215,0.000000,1.578966
LINE860,2.275332,-0.841065,0.000000,-0.333868,0.000000,1.564177
LINE861,0.480804,-0.841215,0.000000,-0.021673,0.000000,1.960361
LINE862,0.000000,4.437374,0.406460,3.347906,0.000000,1.565553
LINE863,0.000000,0.336013,0.000000,3.110662,0.000000,-0.157717
LINE864,0.000000,-0.970061,0.000000,-0.594386,0.000000,1.780871
LINE865,0.426462,-0.841160,0.000000,3.957701,0.000000,1.748988
LINE866,0.480804,-0.841215,0.000000,-0.035517,0.000000,2.677955
LINE867,0.000000,-0.531166,0.406460,3.347906,0.000000,1.566183
LINE868,0.000000,0.171453,0.000000,3.094141,0.000000,-0.085643
LINE869,0.000000,1.779696,0.000000,4.174878,0.000000,-0.145406
LINE870,0.426462,-0.841160,0.000000,-0.858634,0.000000,1.735076
LINE871,0.480804,-0.841215,0.000000,-0.052355,0.000000,2.048313
LINE872,0.000000,-0.312497,0.209516,3.347906,0.000000,3.074074
LINE873,0.000000,4.644870,0.196944,3.347905,0.000000,4.619485
LINE874,0.000000,-0.011670,0.000000,2.920673,0.000000,0.039213
LINE875,0.000000,0.817756,0.000000,2.716847,0.000000,2.719539
LINE876,0.426462,-0.841160,0.000000,-0.637689,0.000000,1.628977
LINE877,0.480804,-0.841215,0.000000,-0.071403,0.000000,2.017764
LINE878,0.000000,-0.852917,0.209516,3.347906,0.000000,1.535493
LINE879,0.000000,-0.852917,0.196944,3.347905,0.000000,1.592881
LINE880,0.000000,-0.201681,0.000000,3.006348,0.000000,3.083662
LINE881,0.000000,3.683312,0.000000,3.683312,0.000000,1.826943
LINE882,0.426462,-0.841160,0.000000,-0.051647,0.000000,1.746124
LINE883,0.480804,-0.841215,0.000000,-0.056629,0.000000,1.895592
LINE884,0.000000,-0.067519,0.209516,3.347906,0.000000,1.549144
LINE885,0.000000,-0.531166,0.196944,3.347905,0.000000,-0.067519
LINE886,0.426462,-0.841160,0.000000,3.120014,0.000000,1.695262
LINE887,0.250855,-0.841214,0.000000,-0.066482,0.000000,1.781438
LINE888,0.229950,-0.841215,0.000000,4.319440,0.000000,1.507382
LINE889,0.000000,-0.531166,0.209516,3.347906,0.000000,-1.503397
LINE890,0.426462,-0.841160,0.000000,4.281689,0.000000,4.681608
LINE891,0.250855,-0.841214,0.000000,-0.092819,0.000000,1.704608
LINE892,0.229950,-0.841215,0.000000,-1.037174,0.000000,1.608365
LINE893,0.000000,1.503278,0.209516,3.347906,0.000000,-1.508195
LINE894,0.225774,-0.841159,0.000000,-0.547308,0.000000,1.597606
LINE895,0.200687,-0.841161,0.000000,4.438705,0.000000,3.784032
LINE896,0.250855,-0.841214,0.000000,-0.033941,0.000000,4.629694
LINE897,0.229950,-0.841215,0.000000,4.398626,0.000000,1.618664
LINE898,0.000000,0.000000,0.209516,3.347906,0.000000,3.074074
LINE899,0.225774,-0.841159,0.000000,-0.257158,0.000000,4.681194
LINE900,0.250855,-0.841214,0.000000,-0.312802,0.000000,4.711838
LINE901,0.250855,-0.841214,0.000000,-0.150429,0.000000,-1.444174
LINE902,0.250855,-0.841214,0.000000,-0.334965,0.000000,1.363335
LINE903,0.250855,-0.841214,0.000000,-0.045849,0.000000,1.601641
LINE904,0.250855,-0.841214,0.000000,3.693252,0.000000,1.513527
LINE905,0.250855,-0.841214,0.000000,1.383819,0.000000,-1.044080
